<?xml version="1.0" encoding="UTF-8"?>

<!-- generated on 2024-06-03 11:27:17 by Eclipse SUMO netedit Version 1.20.0
<configuration xmlns:xsi="http://www.w3.org/2001/XMLSchema-instance" xsi:noNamespaceSchemaLocation="http://sumo.dlr.de/xsd/neteditConfiguration.xsd">

    <input>
        <sumocfg-file value="C:/proje/SimulationESOGU/mysimulation.sumocfg"/>
        <additional-files value="C:/proje/SimulationESOGU/mysimulation.add.xml"/>
        <route-files value="C:/proje/SimulationESOGU/simulationRoute.rou.xml"/>
        <sumo-net-file value="C:/proje/SimulationESOGU/myNet.net.xml"/>
    </input>

    <output>
        <output-file value="C:/proje/SimulationESOGU/myNet.net.xml"/>
    </output>

    <processing>
        <geometry.min-radius.fix.railways value="false"/>
        <geometry.max-grade.fix value="false"/>
        <offset.disable-normalization value="true"/>
        <lefthand value="0"/>
    </processing>

    <junctions>
        <no-turnarounds value="true"/>
        <junctions.corner-detail value="5"/>
        <junctions.limit-turn-speed value="5.50"/>
        <rectangular-lane-cut value="0"/>
    </junctions>

    <pedestrian>
        <walkingareas value="0"/>
    </pedestrian>

    <netedit>
        <ignore.routeelements value="false"/>
    </netedit>

</configuration>
-->

<net version="1.20" junctionCornerDetail="5" limitTurnSpeed="5.50" xmlns:xsi="http://www.w3.org/2001/XMLSchema-instance" xsi:noNamespaceSchemaLocation="http://sumo.dlr.de/xsd/net_file.xsd">

    <location netOffset="-283258.69,-4402513.51" convBoundary="16.43,116.11,1980.11,955.54" origBoundary="30.470344,39.745297,30.493458,39.753442" projParameter="+proj=utm +zone=36 +ellps=WGS84 +datum=WGS84 +units=m +no_defs"/>

    <type id="highway.footway" priority="1" numLanes="1" speed="2.78" allow="pedestrian" oneway="1" width="2.00"/>
    <type id="highway.residential" priority="3" numLanes="1" speed="13.89" disallow="tram rail_urban rail rail_electric rail_fast ship container cable_car subway aircraft wheelchair scooter drone" oneway="0"/>
    <type id="highway.service" priority="1" numLanes="1" speed="5.56" allow="pedestrian delivery bicycle" oneway="0"/>
    <type id="highway.steps" priority="1" numLanes="1" speed="1.39" allow="pedestrian" oneway="1" width="2.00"/>
    <type id="highway.tertiary" priority="10" numLanes="1" speed="22.22" disallow="tram rail_urban rail rail_electric rail_fast ship container cable_car subway aircraft wheelchair scooter drone" oneway="0"/>

    <edge id=":11751175224_0" function="internal">
        <lane id=":11751175224_0_0" index="0" disallow="tram rail_urban rail rail_electric rail_fast ship container cable_car subway aircraft wheelchair scooter drone" speed="13.89" length="0.10" shape="1973.23,758.69 1973.23,758.69"/>
    </edge>
    <edge id=":11751175224_1" function="internal">
        <lane id=":11751175224_1_0" index="0" disallow="tram rail_urban rail rail_electric rail_fast ship container cable_car subway aircraft wheelchair scooter drone" speed="13.89" length="0.10" shape="1970.03,758.63 1970.03,758.63"/>
    </edge>
    <edge id=":11751175230_0" function="internal">
        <lane id=":11751175230_0_0" index="0" disallow="tram rail_urban rail rail_electric rail_fast ship container cable_car subway aircraft wheelchair scooter drone" speed="13.89" length="0.30" shape="1910.19,843.51 1910.49,843.51"/>
    </edge>
    <edge id=":11751175233_0" function="internal">
        <lane id=":11751175233_0_0" index="0" disallow="tram rail_urban rail rail_electric rail_fast ship container cable_car subway aircraft wheelchair scooter drone" speed="13.89" length="0.10" shape="1903.46,787.09 1903.46,787.09"/>
    </edge>
    <edge id=":11751175233_1" function="internal">
        <lane id=":11751175233_1_0" index="0" disallow="tram rail_urban rail rail_electric rail_fast ship container cable_car subway aircraft wheelchair scooter drone" speed="13.89" length="0.10" shape="1900.26,787.03 1900.26,787.03"/>
    </edge>
    <edge id=":11751175242_0" function="internal">
        <lane id=":11751175242_0_0" index="0" disallow="tram rail_urban rail rail_electric rail_fast ship container cable_car subway aircraft wheelchair scooter drone" speed="5.75" length="9.17" shape="1775.08,846.37 1777.77,845.98 1779.27,844.85 1779.59,843.01 1778.73,840.44"/>
    </edge>
    <edge id=":11751175242_1" function="internal">
        <lane id=":11751175242_1_0" index="0" disallow="tram rail_urban rail rail_electric rail_fast ship container cable_car subway aircraft wheelchair scooter drone" speed="13.89" length="11.56" shape="1775.08,846.37 1786.64,846.26"/>
    </edge>
    <edge id=":11751175245_0" function="internal">
        <lane id=":11751175245_0_0" index="0" disallow="tram rail_urban rail rail_electric rail_fast ship container cable_car subway aircraft wheelchair scooter drone" speed="5.83" length="9.13" shape="1799.63,840.09 1799.01,842.69 1799.49,844.53 1801.05,845.60 1803.70,845.92"/>
    </edge>
    <edge id=":11751175245_1" function="internal">
        <lane id=":11751175245_1_0" index="0" disallow="tram rail_urban rail rail_electric rail_fast ship container cable_car subway aircraft wheelchair scooter drone" speed="13.89" length="11.46" shape="1792.24,846.16 1803.70,845.92"/>
    </edge>
    <edge id=":2225294604_0" function="internal">
        <lane id=":2225294604_0_0" index="0" disallow="tram rail_urban rail rail_electric rail_fast ship container cable_car subway aircraft wheelchair scooter drone" speed="13.89" length="5.03" shape="524.43,466.05 524.27,461.02"/>
    </edge>
    <edge id=":2225294604_1" function="internal">
        <lane id=":2225294604_1_0" index="0" disallow="tram rail_urban rail rail_electric rail_fast ship container cable_car subway aircraft wheelchair scooter drone" speed="13.89" length="5.08" shape="527.47,460.90 527.63,465.98"/>
    </edge>
    <edge id=":2225294620_0" function="internal">
        <lane id=":2225294620_0_0" index="0" disallow="tram rail_urban rail rail_electric rail_fast ship container cable_car subway aircraft wheelchair scooter drone" speed="13.89" length="0.29" shape="397.73,501.87 397.72,501.58"/>
    </edge>
    <edge id=":2225294620_1" function="internal">
        <lane id=":2225294620_1_0" index="0" disallow="tram rail_urban rail rail_electric rail_fast ship container cable_car subway aircraft wheelchair scooter drone" speed="13.89" length="0.31" shape="400.91,501.46 400.92,501.77"/>
    </edge>
    <edge id=":2225294623_0" function="internal">
        <lane id=":2225294623_0_0" index="0" disallow="tram rail_urban rail rail_electric rail_fast ship container cable_car subway aircraft wheelchair scooter drone" speed="13.89" length="0.31" shape="1514.50,513.28 1514.50,512.97"/>
    </edge>
    <edge id=":2225294623_1" function="internal">
        <lane id=":2225294623_1_0" index="0" disallow="tram rail_urban rail rail_electric rail_fast ship container cable_car subway aircraft wheelchair scooter drone" speed="13.89" length="0.29" shape="1517.70,512.95 1517.70,513.24"/>
    </edge>
    <edge id=":2225294628_0" function="internal">
        <lane id=":2225294628_0_0" index="0" disallow="tram rail_urban rail rail_electric rail_fast ship container cable_car subway aircraft wheelchair scooter drone" speed="13.89" length="7.83" shape="527.29,583.80 527.14,575.97"/>
    </edge>
    <edge id=":2225294628_1" function="internal">
        <lane id=":2225294628_1_0" index="0" disallow="tram rail_urban rail rail_electric rail_fast ship container cable_car subway aircraft wheelchair scooter drone" speed="5.91" length="3.47" shape="527.29,583.80 527.67,580.49 527.76,580.39"/>
    </edge>
    <edge id=":2225294628_4" function="internal">
        <lane id=":2225294628_4_0" index="0" disallow="tram rail_urban rail rail_electric rail_fast ship container cable_car subway aircraft wheelchair scooter drone" speed="5.91" length="8.06" shape="527.76,580.39 528.99,579.09 531.22,579.59 534.39,582.00"/>
    </edge>
    <edge id=":2225294628_2" function="internal">
        <lane id=":2225294628_2_0" index="0" disallow="tram rail_urban rail rail_electric rail_fast ship container cable_car subway aircraft wheelchair scooter drone" speed="8.95" length="7.46" shape="530.34,575.91 530.61,577.18 531.37,578.62 532.63,580.23 534.39,582.00"/>
    </edge>
    <edge id=":2225294628_3" function="internal">
        <lane id=":2225294628_3_0" index="0" disallow="tram rail_urban rail rail_electric rail_fast ship container cable_car subway aircraft wheelchair scooter drone" speed="13.89" length="7.84" shape="530.34,575.91 530.49,583.74"/>
    </edge>
    <edge id=":2225294631_0" function="internal">
        <lane id=":2225294631_0_0" index="0" allow="pedestrian delivery bicycle" speed="3.65" length="4.67" shape="672.13,566.95 672.88,565.72 673.67,565.28 674.48,565.65 675.33,566.82"/>
    </edge>
    <edge id=":2225294648_0" function="internal">
        <lane id=":2225294648_0_0" index="0" disallow="tram rail_urban rail rail_electric rail_fast ship container cable_car subway aircraft wheelchair scooter drone" speed="13.89" length="0.17" shape="1948.01,595.73 1947.92,595.59"/>
    </edge>
    <edge id=":2225294648_1" function="internal">
        <lane id=":2225294648_1_0" index="0" disallow="tram rail_urban rail rail_electric rail_fast ship container cable_car subway aircraft wheelchair scooter drone" speed="13.89" length="0.29" shape="1950.55,593.78 1950.71,594.02"/>
    </edge>
    <edge id=":2225294649_0" function="internal">
        <lane id=":2225294649_0_0" index="0" allow="pedestrian delivery bicycle" speed="5.56" length="9.40" shape="680.98,619.60 671.58,620.02"/>
    </edge>
    <edge id=":2225294649_1" function="internal">
        <lane id=":2225294649_1_0" index="0" allow="pedestrian delivery bicycle" speed="5.56" length="10.16" shape="680.98,619.60 678.22,619.33 676.20,618.23 674.92,616.32 674.39,613.58"/>
    </edge>
    <edge id=":2225294649_2" function="internal">
        <lane id=":2225294649_2_0" index="0" allow="pedestrian delivery bicycle" speed="3.65" length="4.67" shape="680.98,619.60 679.74,618.85 679.31,618.07 679.67,617.25 680.83,616.40"/>
    </edge>
    <edge id=":2225294649_3" function="internal">
        <lane id=":2225294649_3_0" index="0" allow="pedestrian delivery bicycle" speed="5.06" length="5.03" shape="677.59,613.41 677.85,614.77 678.48,615.72 679.47,616.27 680.83,616.40"/>
    </edge>
    <edge id=":2225294649_4" function="internal">
        <lane id=":2225294649_4_0" index="0" allow="pedestrian delivery bicycle" speed="5.56" length="10.20" shape="677.59,613.41 677.33,616.20 676.25,618.23 674.33,619.50 671.58,620.02"/>
    </edge>
    <edge id=":2225294649_5" function="internal">
        <lane id=":2225294649_5_0" index="0" allow="pedestrian delivery bicycle" speed="3.65" length="4.67" shape="677.59,613.41 676.85,614.65 676.07,615.09 675.25,614.73 674.39,613.58"/>
    </edge>
    <edge id=":2225294649_6" function="internal">
        <lane id=":2225294649_6_0" index="0" allow="pedestrian delivery bicycle" speed="5.03" length="5.01" shape="671.44,616.82 672.79,616.56 673.73,615.94 674.27,614.94 674.39,613.58"/>
    </edge>
    <edge id=":2225294649_7" function="internal">
        <lane id=":2225294649_7_0" index="0" allow="pedestrian delivery bicycle" speed="5.56" length="9.40" shape="671.44,616.82 680.83,616.40"/>
    </edge>
    <edge id=":2225294649_8" function="internal">
        <lane id=":2225294649_8_0" index="0" allow="pedestrian delivery bicycle" speed="3.65" length="4.67" shape="671.44,616.82 672.68,617.57 673.11,618.35 672.75,619.16 671.58,620.02"/>
    </edge>
    <edge id=":2225294658_0" function="internal">
        <lane id=":2225294658_0_0" index="0" disallow="tram rail_urban rail rail_electric rail_fast ship container cable_car subway aircraft wheelchair scooter drone" speed="13.89" length="0.31" shape="1514.54,612.91 1514.54,612.60"/>
    </edge>
    <edge id=":2225294658_1" function="internal">
        <lane id=":2225294658_1_0" index="0" disallow="tram rail_urban rail rail_electric rail_fast ship container cable_car subway aircraft wheelchair scooter drone" speed="13.89" length="0.25" shape="1517.74,612.64 1517.74,612.89"/>
    </edge>
    <edge id=":2225294673_0" function="internal">
        <lane id=":2225294673_0_0" index="0" disallow="tram rail_urban rail rail_electric rail_fast ship container cable_car subway aircraft wheelchair scooter drone" speed="13.89" length="14.22" shape="402.52,669.08 402.09,654.87"/>
    </edge>
    <edge id=":2225294673_1" function="internal">
        <lane id=":2225294673_1_0" index="0" disallow="tram rail_urban rail rail_electric rail_fast ship container cable_car subway aircraft wheelchair scooter drone" speed="8.02" length="3.95" shape="402.52,669.08 402.99,665.26 403.04,665.18"/>
    </edge>
    <edge id=":2225294673_2" function="internal">
        <lane id=":2225294673_2_0" index="0" disallow="tram rail_urban rail rail_electric rail_fast ship container cable_car subway aircraft wheelchair scooter drone" speed="3.65" length="1.44" shape="402.52,669.08 403.29,667.87"/>
    </edge>
    <edge id=":2225294673_9" function="internal">
        <lane id=":2225294673_9_0" index="0" disallow="tram rail_urban rail rail_electric rail_fast ship container cable_car subway aircraft wheelchair scooter drone" speed="8.02" length="10.15" shape="403.04,665.18 404.58,662.49 407.27,660.77 411.08,660.10"/>
    </edge>
    <edge id=":2225294673_10" function="internal">
        <lane id=":2225294673_10_0" index="0" disallow="tram rail_urban rail rail_electric rail_fast ship container cable_car subway aircraft wheelchair scooter drone" speed="3.65" length="3.23" shape="403.29,667.87 404.09,667.46 404.89,667.84 405.71,669.03"/>
    </edge>
    <edge id=":2225294673_3" function="internal">
        <lane id=":2225294673_3_0" index="0" disallow="tram rail_urban rail rail_electric rail_fast ship container cable_car subway aircraft wheelchair scooter drone" speed="6.53" length="9.00" shape="411.18,663.30 408.75,663.73 407.03,664.82 406.02,666.59 405.71,669.03"/>
    </edge>
    <edge id=":2225294673_4" function="internal">
        <lane id=":2225294673_4_0" index="0" disallow="tram rail_urban rail rail_electric rail_fast ship container cable_car subway aircraft wheelchair scooter drone" speed="8.00" length="14.11" shape="411.18,663.30 407.34,662.88 404.55,661.34 402.80,658.67 402.09,654.87"/>
    </edge>
    <edge id=":2225294673_5" function="internal">
        <lane id=":2225294673_5_0" index="0" disallow="tram rail_urban rail rail_electric rail_fast ship container cable_car subway aircraft wheelchair scooter drone" speed="3.65" length="4.67" shape="411.18,663.30 409.96,662.54 409.53,661.75 409.90,660.94 411.08,660.10"/>
    </edge>
    <edge id=":2225294673_6" function="internal">
        <lane id=":2225294673_6_0" index="0" disallow="tram rail_urban rail rail_electric rail_fast ship container cable_car subway aircraft wheelchair scooter drone" speed="6.51" length="8.98" shape="405.29,654.74 405.74,657.15 406.85,658.85 408.63,659.83 411.08,660.10"/>
    </edge>
    <edge id=":2225294673_7" function="internal">
        <lane id=":2225294673_7_0" index="0" disallow="tram rail_urban rail rail_electric rail_fast ship container cable_car subway aircraft wheelchair scooter drone" speed="13.89" length="14.30" shape="405.29,654.74 405.71,669.03"/>
    </edge>
    <edge id=":2225294673_8" function="internal">
        <lane id=":2225294673_8_0" index="0" disallow="tram rail_urban rail rail_electric rail_fast ship container cable_car subway aircraft wheelchair scooter drone" speed="3.65" length="1.44" shape="405.29,654.74 404.54,655.97"/>
    </edge>
    <edge id=":2225294673_11" function="internal">
        <lane id=":2225294673_11_0" index="0" disallow="tram rail_urban rail rail_electric rail_fast ship container cable_car subway aircraft wheelchair scooter drone" speed="3.65" length="3.23" shape="404.54,655.97 403.76,656.40 402.94,656.03 402.09,654.87"/>
    </edge>
    <edge id=":2225294691_0" function="internal">
        <lane id=":2225294691_0_0" index="0" disallow="tram rail_urban rail rail_electric rail_fast ship container cable_car subway aircraft wheelchair scooter drone" speed="13.89" length="12.89" shape="1903.80,657.25 1900.50,656.36 1897.54,655.75 1894.54,655.34 1891.13,655.06"/>
    </edge>
    <edge id=":2225294691_1" function="internal">
        <lane id=":2225294691_1_0" index="0" disallow="tram rail_urban rail rail_electric rail_fast ship container cable_car subway aircraft wheelchair scooter drone" speed="8.30" length="3.68" shape="1903.80,657.25 1900.56,655.78 1900.47,655.69"/>
    </edge>
    <edge id=":2225294691_2" function="internal">
        <lane id=":2225294691_2_0" index="0" disallow="tram rail_urban rail rail_electric rail_fast ship container cable_car subway aircraft wheelchair scooter drone" speed="3.65" length="1.44" shape="1903.80,657.25 1902.87,656.15"/>
    </edge>
    <edge id=":2225294691_9" function="internal">
        <lane id=":2225294691_9_0" index="0" disallow="tram rail_urban rail rail_electric rail_fast ship container cable_car subway aircraft wheelchair scooter drone" speed="8.30" length="9.78" shape="1900.47,655.69 1898.39,653.58 1897.29,650.64 1897.25,646.97"/>
    </edge>
    <edge id=":2225294691_10" function="internal">
        <lane id=":2225294691_10_0" index="0" disallow="tram rail_urban rail rail_electric rail_fast ship container cable_car subway aircraft wheelchair scooter drone" speed="3.65" length="3.23" shape="1902.87,656.15 1902.71,655.27 1903.32,654.61 1904.69,654.18"/>
    </edge>
    <edge id=":2225294691_3" function="internal">
        <lane id=":2225294691_3_0" index="0" disallow="tram rail_urban rail rail_electric rail_fast ship container cable_car subway aircraft wheelchair scooter drone" speed="6.85" length="8.89" shape="1900.43,647.36 1900.44,649.80 1901.16,651.76 1902.58,653.21 1904.69,654.18"/>
    </edge>
    <edge id=":2225294691_4" function="internal">
        <lane id=":2225294691_4_0" index="0" disallow="tram rail_urban rail rail_electric rail_fast ship container cable_car subway aircraft wheelchair scooter drone" speed="8.01" length="13.60" shape="1900.43,647.36 1899.47,650.93 1897.60,653.40 1894.82,654.78 1891.13,655.06"/>
    </edge>
    <edge id=":2225294691_5" function="internal">
        <lane id=":2225294691_5_0" index="0" disallow="tram rail_urban rail rail_electric rail_fast ship container cable_car subway aircraft wheelchair scooter drone" speed="3.65" length="4.67" shape="1900.43,647.36 1899.49,648.45 1898.64,648.75 1897.90,648.25 1897.25,646.97"/>
    </edge>
    <edge id=":2225294691_6" function="internal">
        <lane id=":2225294691_6_0" index="0" disallow="tram rail_urban rail rail_electric rail_fast ship container cable_car subway aircraft wheelchair scooter drone" speed="6.52" length="8.65" shape="1891.34,651.87 1893.68,651.69 1895.45,650.81 1896.64,649.24 1897.25,646.97"/>
    </edge>
    <edge id=":2225294691_7" function="internal">
        <lane id=":2225294691_7_0" index="0" disallow="tram rail_urban rail rail_electric rail_fast ship container cable_car subway aircraft wheelchair scooter drone" speed="13.89" length="13.59" shape="1891.34,651.87 1894.85,652.17 1898.09,652.62 1901.28,653.27 1904.69,654.18"/>
    </edge>
    <edge id=":2225294691_8" function="internal">
        <lane id=":2225294691_8_0" index="0" disallow="tram rail_urban rail rail_electric rail_fast ship container cable_car subway aircraft wheelchair scooter drone" speed="3.65" length="1.44" shape="1891.34,651.87 1892.48,652.75"/>
    </edge>
    <edge id=":2225294691_11" function="internal">
        <lane id=":2225294691_11_0" index="0" disallow="tram rail_urban rail rail_electric rail_fast ship container cable_car subway aircraft wheelchair scooter drone" speed="3.65" length="3.23" shape="1892.48,652.75 1892.83,653.57 1892.38,654.34 1891.13,655.06"/>
    </edge>
    <edge id=":2225294705_0" function="internal">
        <lane id=":2225294705_0_0" index="0" disallow="tram rail_urban rail rail_electric rail_fast ship container cable_car subway aircraft wheelchair scooter drone" speed="13.89" length="3.83" shape="406.09,690.44 406.13,691.57 406.20,692.35 406.34,693.12 406.59,694.23"/>
    </edge>
    <edge id=":2225294705_1" function="internal">
        <lane id=":2225294705_1_0" index="0" disallow="tram rail_urban rail rail_electric rail_fast ship container cable_car subway aircraft wheelchair scooter drone" speed="3.65" length="1.44" shape="406.09,690.44 405.31,691.65"/>
    </edge>
    <edge id=":2225294705_4" function="internal">
        <lane id=":2225294705_4_0" index="0" disallow="tram rail_urban rail rail_electric rail_fast ship container cable_car subway aircraft wheelchair scooter drone" speed="3.65" length="3.23" shape="405.31,691.65 404.52,692.06 403.71,691.68 402.89,690.49"/>
    </edge>
    <edge id=":2225294705_2" function="internal">
        <lane id=":2225294705_2_0" index="0" disallow="tram rail_urban rail rail_electric rail_fast ship container cable_car subway aircraft wheelchair scooter drone" speed="13.89" length="5.15" shape="402.72,695.63 402.91,694.12 402.96,693.07 402.94,692.02 402.89,690.49"/>
    </edge>
    <edge id=":2225294705_3" function="internal">
        <lane id=":2225294705_3_0" index="0" disallow="tram rail_urban rail rail_electric rail_fast ship container cable_car subway aircraft wheelchair scooter drone" speed="5.47" length="4.49" shape="402.72,695.63 403.58,691.23"/>
    </edge>
    <edge id=":2225294705_5" function="internal">
        <lane id=":2225294705_5_0" index="0" disallow="tram rail_urban rail rail_electric rail_fast ship container cable_car subway aircraft wheelchair scooter drone" speed="5.47" length="7.21" shape="403.58,691.23 404.52,689.52 405.52,690.52 406.59,694.23"/>
    </edge>
    <edge id=":2225294718_0" function="internal">
        <lane id=":2225294718_0_0" index="0" disallow="tram rail_urban rail rail_electric rail_fast ship container cable_car subway aircraft wheelchair scooter drone" speed="13.89" length="0.24" shape="1516.30,689.34 1516.30,689.09"/>
    </edge>
    <edge id=":2225294718_1" function="internal">
        <lane id=":2225294718_1_0" index="0" disallow="tram rail_urban rail rail_electric rail_fast ship container cable_car subway aircraft wheelchair scooter drone" speed="13.89" length="0.31" shape="1519.50,689.01 1519.50,689.32"/>
    </edge>
    <edge id=":2225294724_0" function="internal">
        <lane id=":2225294724_0_0" index="0" disallow="tram rail_urban rail rail_electric rail_fast ship container cable_car subway aircraft wheelchair scooter drone" speed="13.89" length="15.95" shape="1973.94,669.84 1974.15,685.79"/>
    </edge>
    <edge id=":2225294724_1" function="internal">
        <lane id=":2225294724_1_0" index="0" disallow="tram rail_urban rail rail_electric rail_fast ship container cable_car subway aircraft wheelchair scooter drone" speed="10.98" length="2.48" shape="1973.94,669.84 1973.23,672.22"/>
    </edge>
    <edge id=":2225294724_2" function="internal">
        <lane id=":2225294724_2_0" index="0" disallow="tram rail_urban rail rail_electric rail_fast ship container cable_car subway aircraft wheelchair scooter drone" speed="9.57" length="2.18" shape="1973.94,669.84 1973.21,671.90"/>
    </edge>
    <edge id=":2225294724_3" function="internal">
        <lane id=":2225294724_3_0" index="0" disallow="tram rail_urban rail rail_electric rail_fast ship container cable_car subway aircraft wheelchair scooter drone" speed="3.65" length="1.44" shape="1973.94,669.84 1973.17,671.06"/>
    </edge>
    <edge id=":2225294724_16" function="internal">
        <lane id=":2225294724_16_0" index="0" disallow="tram rail_urban rail rail_electric rail_fast ship container cable_car subway aircraft wheelchair scooter drone" speed="10.98" length="25.38" shape="1973.23,672.22 1972.59,674.36 1968.29,677.63 1961.05,679.67 1950.86,680.46"/>
    </edge>
    <edge id=":2225294724_17" function="internal">
        <lane id=":2225294724_17_0" index="0" disallow="tram rail_urban rail rail_electric rail_fast ship container cable_car subway aircraft wheelchair scooter drone" speed="9.57" length="24.36" shape="1973.21,671.90 1972.20,674.75 1967.26,676.31 1960.07,675.36 1951.56,672.75"/>
    </edge>
    <edge id=":2225294724_18" function="internal">
        <lane id=":2225294724_18_0" index="0" disallow="tram rail_urban rail rail_electric rail_fast ship container cable_car subway aircraft wheelchair scooter drone" speed="3.65" length="3.23" shape="1973.17,671.06 1972.38,671.48 1971.57,671.10 1970.74,669.92"/>
    </edge>
    <edge id=":2225294724_4" function="internal">
        <lane id=":2225294724_4_0" index="0" disallow="tram rail_urban rail rail_electric rail_fast ship container cable_car subway aircraft wheelchair scooter drone" speed="8.40" length="20.14" shape="1952.63,669.74 1960.61,672.19 1966.29,673.04 1969.67,672.28 1970.74,669.92"/>
    </edge>
    <edge id=":2225294724_5" function="internal">
        <lane id=":2225294724_5_0" index="0" disallow="tram rail_urban rail rail_electric rail_fast ship container cable_car subway aircraft wheelchair scooter drone" speed="12.81" length="28.07" shape="1952.63,669.74 1962.05,673.62 1968.77,677.59 1972.80,681.64 1974.15,685.79"/>
    </edge>
    <edge id=":2225294724_6" function="internal">
        <lane id=":2225294724_6_0" index="0" disallow="tram rail_urban rail rail_electric rail_fast ship container cable_car subway aircraft wheelchair scooter drone" speed="6.09" length="15.01" shape="1952.63,669.74 1955.60,672.26 1956.14,675.83 1954.48,679.03 1950.86,680.46"/>
    </edge>
    <edge id=":2225294724_7" function="internal">
        <lane id=":2225294724_7_0" index="0" disallow="tram rail_urban rail rail_electric rail_fast ship container cable_car subway aircraft wheelchair scooter drone" speed="3.65" length="4.67" shape="1952.63,669.74 1953.49,670.89 1953.60,671.78 1952.96,672.40 1951.56,672.75"/>
    </edge>
    <edge id=":2225294724_8" function="internal">
        <lane id=":2225294724_8_0" index="0" disallow="tram rail_urban rail rail_electric rail_fast ship container cable_car subway aircraft wheelchair scooter drone" speed="5.85" length="13.66" shape="1950.81,677.26 1955.68,676.91 1957.43,676.04 1956.05,674.65 1951.56,672.75"/>
    </edge>
    <edge id=":2225294724_9" function="internal">
        <lane id=":2225294724_9_0" index="0" disallow="tram rail_urban rail rail_electric rail_fast ship container cable_car subway aircraft wheelchair scooter drone" speed="9.99" length="22.87" shape="1950.81,677.26 1959.59,676.69 1965.84,675.28 1969.56,673.02 1970.74,669.92"/>
    </edge>
    <edge id=":2225294724_10" function="internal">
        <lane id=":2225294724_10_0" index="0" disallow="tram rail_urban rail rail_electric rail_fast ship container cable_car subway aircraft wheelchair scooter drone" speed="10.79" length="26.95" shape="1950.81,677.26 1961.02,677.66 1968.31,679.22 1972.69,681.93 1974.15,685.79"/>
    </edge>
    <edge id=":2225294724_11" function="internal">
        <lane id=":2225294724_11_0" index="0" disallow="tram rail_urban rail rail_electric rail_fast ship container cable_car subway aircraft wheelchair scooter drone" speed="3.65" length="4.67" shape="1950.81,677.26 1952.02,678.04 1952.43,678.84 1952.05,679.64 1950.86,680.46"/>
    </edge>
    <edge id=":2225294724_12" function="internal">
        <lane id=":2225294724_12_0" index="0" disallow="tram rail_urban rail rail_electric rail_fast ship container cable_car subway aircraft wheelchair scooter drone" speed="9.79" length="22.02" shape="1970.95,685.79 1969.69,683.35 1965.93,681.64 1959.65,680.68 1950.86,680.46"/>
    </edge>
    <edge id=":2225294724_13" function="internal">
        <lane id=":2225294724_13_0" index="0" disallow="tram rail_urban rail rail_electric rail_fast ship container cable_car subway aircraft wheelchair scooter drone" speed="11.93" length="24.24" shape="1970.95,685.79 1969.74,682.68 1966.10,679.47 1960.04,676.16 1951.56,672.75"/>
    </edge>
    <edge id=":2225294724_14" function="internal">
        <lane id=":2225294724_14_0" index="0" disallow="tram rail_urban rail rail_electric rail_fast ship container cable_car subway aircraft wheelchair scooter drone" speed="13.89" length="15.87" shape="1970.95,685.79 1970.74,669.92"/>
    </edge>
    <edge id=":2225294724_15" function="internal">
        <lane id=":2225294724_15_0" index="0" disallow="tram rail_urban rail rail_electric rail_fast ship container cable_car subway aircraft wheelchair scooter drone" speed="3.65" length="1.44" shape="1970.95,685.79 1971.75,684.59"/>
    </edge>
    <edge id=":2225294724_19" function="internal">
        <lane id=":2225294724_19_0" index="0" disallow="tram rail_urban rail rail_electric rail_fast ship container cable_car subway aircraft wheelchair scooter drone" speed="3.65" length="3.23" shape="1971.75,684.59 1972.55,684.19 1973.35,684.59 1974.15,685.79"/>
    </edge>
    <edge id=":2225294728_0" function="internal">
        <lane id=":2225294728_0_0" index="0" disallow="tram rail_urban rail rail_electric rail_fast ship container cable_car subway aircraft wheelchair scooter drone" speed="7.29" length="9.83" shape="534.88,712.92 535.35,715.70 536.44,717.80 538.14,719.22 540.46,719.95"/>
    </edge>
    <edge id=":2225294728_1" function="internal">
        <lane id=":2225294728_1_0" index="0" disallow="tram rail_urban rail rail_electric rail_fast ship container cable_car subway aircraft wheelchair scooter drone" speed="3.65" length="4.67" shape="534.88,712.92 534.14,714.16 533.37,714.60 532.55,714.25 531.68,713.09"/>
    </edge>