<?xml version="1.0" encoding="UTF-8"?>

<!-- generated on 2024-05-30 23:05:14.657211 by randomTrips.py v1_20_0+0002-343658e7c64
<configuration>
    <net-file value="C:\proje\SimulationESOGU\myNet.net.xml"/>
    <output-trip-file value="C:\proje\SimulationESOGU\myNettrips.trips.xml"/>
    <route-file value="C:\proje\SimulationESOGU\simulationRoute.rou.xml"/>
    <end value="10.0"/>
    <period value="1.0"/>
</configuration>
-->

<!-- generated on 2024-05-30 23:05:14 by Eclipse SUMO duarouter Version 1.20.0
<configuration xmlns:xsi="http://www.w3.org/2001/XMLSchema-instance" xsi:noNamespaceSchemaLocation="http://sumo.dlr.de/xsd/duarouterConfiguration.xsd">

    <input>
        <net-file value="C:\proje\SimulationESOGU\myNet.net.xml"/>
        <route-files value="C:\proje\SimulationESOGU\myNettrips.trips.xml"/>
    </input>

    <output>
        <output-file value="C:\proje\SimulationESOGU\simulationRoute.rou.xml"/>
        <alternatives-output value="NUL"/>
    </output>

    <time>
        <begin value="0.0"/>
        <end value="10.0"/>
    </time>

    <report>
        <no-warnings value="true"/>
        <ignore-errors value="true"/>
        <no-step-log value="true"/>
    </report>

</configuration>
-->

<routes xmlns:xsi="http://www.w3.org/2001/XMLSchema-instance" xsi:noNamespaceSchemaLocation="http://sumo.dlr.de/xsd/routes_file.xsd">
    

    <vTypeDistribution id="EV">
        <vType id="EV_CarTYPE" vClass="evehicle" color="red">
            <param key="allowCharging" value="true"/>
            <param key="has.battery.device" value="true"/>
            <param key="airDragCoefficient" value="0.28"/>
            <param key="constantPowerIntake" value="1200000"/> <!-- Daha düşük sabit güç alımı -->
            <param key="frontSurfaceArea" value="2.3"/>
            <param key="internalMomentOfInertia" value="0.01"/>
            <param key="maximumBatteryCapacity" value="64000"/>
            <param key="maximumPower" value="2500000"/> <!-- Daha düşük maksimum güç -->
            <param key="propulsionEfficiency" value="0.99"/>
            <param key="radialDragCoefficient" value="0.03"/> <!-- Daha düşük dönme direnci -->
            <param key="recuperationEfficiency" value="0.98"/>
            <param key="rollDragCoefficient" value="0.005"/>
            <param key="stoppingThreshold" value="0.1"/>
            <param key="vehicleMass" value="1200"/>
        </vType>
    </vTypeDistribution>
    
     
    <!-- test case 1 -->
    <route id="mytestroute" edges="-212712119#7 -212712119#6 -212712119#5 -212712119#4 -212712119#3 -212712119#2 -212712119#1 -368620842#6 -368620842#5 -368620842#4 -368620842#2 -368620842#1 212712097#0 212712097#1 212712097#3 212712097#4 212712097#5 212712097#6 212712097#9 212712097#10 212712097#11 212712097#12 212712097#13 212712097#14 212712097#15 212712097#16 212712097#19 212712097#20 212712097#21"/>
    <!-- <route id="route1" edges="697983206#0 697983206#2 697983206#4 697983206#5 369625684#4 369625682#0 369625682#1 369625682#3 E7 E8 369625682#7 369625682#8 369625682#9 369625682#10 369625682#11 369625682#12 369625682#13 369625682#14 369625682#15 368610900#3 E3 E4 605647265 E5 E6 -724024576#10 -724024576#9 -724024576#8 -724024576#6 -724024576#5 -724024576#4 -724024576#3 -724024576#2 E19 E20 -212712104#4 -212712104#3 E9 E2 1205492277 700307260#1 212712119#3 212712119#4 212712119#5 212712119#6 212712119#7 212712119#8 212712083#1 212712083#3 212712083#4 212712083#5 212712083#6 212712083#7 -368620842#2 -368620842#1 -368620842#0 212712118#0 212712118#3 212712118#4 369625683#0 369625683#1 369625683#2 1264916703 369625683#5 369625683#6 369625683#7"/> -->
    <route id="r_0" edges="697983206#2 697983206#4"/>
    <route id="rota2" edges="697983206#2 697983206#4 697983206#5 369625684#4 369625682#0 369625682#1 369625682#3 369625682#4 369625682#5 369625682#7 369625682#8 369625682#9 369625682#10 -212712101#4 -212712101#3 -212712101#1 -368620842#6 -368620842#5 -368620842#4 -368620842#2 -368620842#1"/>
    <route id="uzunrota" edges="697983206#2 697983206#4 697983206#5 369625684#4 369625684#1 212712098#0 212712098#1 368620842#0 368620842#1 368620842#2 368620842#4 368620842#5 368620842#6 368620842#8 368620842#9 368620842#12 368620842#13 669466787#1 669466787#2 669466787#3 369628890#7 369628890#8 369628890#9 369625682#11 369625682#12 369625682#13 369625682#14 369625682#15 368610900#3 E0 605647265 -724024576#11 -724024576#10 -724024576#9 -724024576#8 -724024576#6 -724024576#5 -724024576#4 -724024576#3 -724024576#2 -724024576#1 -212712104#4 -212712104#3 -212712104#2 -212712104#1 -212712104#0 212712119#3 212712119#4 212712119#5 212712119#6 212712119#7 212712119#8 212712083#1 212712083#3 212712083#4 212712083#5 212712083#6 212712083#7 -368620842#2 -368620842#1 212712097#0 212712097#1 212712097#3 212712097#4 212712097#5 212712097#6 212712097#9 212712097#10 212712097#11 212712097#12 212712097#13 212712097#14 212712097#15 212712097#16 212712097#19 212712097#20 212712097#21 212712097#22 212712097#23 212712097#24"/>
    <route id="campus_tour" edges="697983206#0 697983206#2 697983206#4 697983206#5 369625684#4 369625682#0 369625682#1 369625682#3 369625682#4 369625682#5 369625682#7 369625682#8 369625682#9 369625682#10 369625682#11 369625682#12 369625682#13 369625682#14 369625682#15 368610900#3 E0 605647265 -724024576#11 -724024576#10 -724024576#9 -724024576#8 -724024576#6 -724024576#5 -724024576#4 -724024576#3 -724024576#2 -724024576#1 -212712104#4 -212712104#3 -212712104#2 -212712104#1 -212712104#0 212712119#3 212712119#4 212712119#5 212712119#6 212712119#7 212712119#8 212712083#1 212712083#3 212712083#4 212712083#5 212712083#6 212712083#7 -368620842#2 -368620842#1 -368620842#0 212712118#0 212712118#3 212712118#4 369625683#0 369625683#1 369625683#2 369625683#3 369625683#5 369625683#6 369625683#7"/>
    
    <!-- test case 2  -->
    <route id="denemerota2" edges="605647265 -724024576#11 -724024576#10 -724024576#9 -724024576#8 -724024576#6 -724024576#5 -724024576#4 -724024576#3 -724024576#2 -724024576#1 -212712104#4 -212712104#3 -212712104#2 -212712104#1 -212712104#0 -212712119#2 -212712119#1 212712101#1 212712101#3 212712101#4 369628890#10 369628890#11 369628890#12 369628890#13"/>
    
    <vehicle id="v_0" type="EV_CarTYPE" depart="5.00" route="campus_tour">
        <param key="actualBatteryCapacity" value="64000"/>
        <!-- <stop chargingStation="cs_9" duration="100"></stop> -->
    </vehicle>












    <!-- randoms -->
    <!-- <vehicle id="0" depart="0.00">
        <route edges="212712119#3 212712119#4 212712119#5 212712119#6 212712119#7 212712119#8 212712083#1 212712083#3 212712083#4 212712083#5 212712083#6 212712083#7 -212712083#7 -212712083#6"/>
    </vehicle> -->
    <!-- <vehicle depart="1.00" id="v_0" type="EV_CarTYPE" color="red">
        
        <routeDistribution>
            <route id="loop_r_0" probability="1.0" edges="-368620842#9 -368620842#8 368620842#8 368620842#9 368620842#12 368620842#13 368620842#16 368620842#17 -368611134#1 -368611134#0"/>
        </routeDistribution>
         
        <route edges="-368620842#9 -368620842#8 368620842#8 368620842#9 368620842#12 368620842#13 368620842#16 368620842#17 -368611134#1 -368611134#0"/>
    
    </vehicle> -->
    <!-- <vehicle id="2" depart="2.00">
        <route edges="369625682#13 369625682#14 369625682#15 368610900#3 368610900#4 369628891#0 369628891#1 212712103 -368620842#20 -368620842#17 -368620842#16 -368620842#13 -368620842#12 368620842#12 368620842#13"/>
    </vehicle>
    <vehicle id="3" depart="3.00">
        <route edges="642121509#1 642121509#2 -212712097#16 -212712097#15"/>
    </vehicle>
    <vehicle id="4" depart="4.00">
        <route edges="212712083#1 212712083#3 212712083#4 212712083#5 212712083#6 212712083#7 -212712083#7"/>
    </vehicle>
    <vehicle id="5" depart="5.00">
        <route edges="-212712119#7 -212712119#6 -212712119#5 -212712119#4 -212712119#3 -212712119#2 -212712119#1 -368620842#6 -368620842#5 -368620842#4 -368620842#2 -368620842#1 212712097#0 212712097#1 212712097#3 212712097#4 212712097#5 212712097#6 212712097#9 212712097#10 212712097#11 212712097#12 212712097#13 212712097#14 212712097#15 212712097#16 212712097#19 212712097#20 212712097#21"/>
    </vehicle>
    <vehicle id="6" depart="6.00">
        <route edges="-212712083#6 -212712083#5 -212712083#4 -212712083#3 -212712083#1 -212712083#0 -212712119#7 -212712119#6 -212712119#5 -212712119#4 -212712119#3 -212712119#2 -212712119#1"/>
    </vehicle>
    <vehicle id="7" depart="7.00">
        <route edges="212712119#6 212712119#7 212712119#8 212712083#1 212712083#3 212712083#4 212712083#5 212712083#6 212712083#7 368620842#4 368620842#5 368620842#6 212712101#1"/>
    </vehicle>
    <vehicle id="8" depart="8.00">
        <route edges="-212712119#7 -212712119#6 -212712119#5 -212712119#4 -212712119#3 212712104#0 212712104#1 212712104#2 212712104#3 212712104#4 212712115#1 212712115#3"/>
    </vehicle>
    <vehicle id="9" depart="9.00">
        <route edges="369628890#12 369628890#13 369625684#2 369625683#0 369625683#1 369625683#2 369625683#3 -1264916703"/>
    </vehicle> -->


</routes>
